@<TRIPOS>MOLECULE
LIG
 68 72 0 0 0
SMALL
GASTEIGER

@<TRIPOS>ATOM
      1 C1        -13.8680  -17.5330   15.2760 C.3     1  LIG       -0.0530
      2 C2        -13.6760  -17.1710   16.7540 C.3     1  LIG        0.0452
      3 C3        -14.8980  -17.5370   17.6070 C.2     1  LIG        0.2786
      4 O4        -15.9010  -17.8230   17.0120 O.2     1  LIG       -0.2571
      5 N5        -14.8890  -17.5000   19.0900 N.am    1  LIG       -0.1605
      6 C6        -13.7710  -17.1760   19.9970 C.2     1  LIG        0.5040
      7 N7        -13.8440  -17.2070   21.3260 N.2     1  LIG        0.1164
      8 N8        -12.5910  -16.8440   21.8690 N.pl3   1  LIG       -0.0297
      9 C9        -11.7960  -16.6210   20.8570 C.2     1  LIG        0.3327
     10 C10       -10.4320  -16.2360   21.0790 C.3     1  LIG        0.0613
     11 C11        -9.9710  -16.0760   22.3840 C.3     1  LIG       -0.0013
     12 C12       -10.8590  -16.3550   23.4430 C.3     1  LIG       -0.0058
     13 C13       -12.1850  -16.7280   23.1710 C.3     1  LIG        0.1225
     14 C14        -8.6280  -15.7610   22.6700 C.ar    1  LIG       -0.0429
     15 C15        -7.6240  -16.1850   21.7810 C.ar    1  LIG       -0.0563
     16 C16        -6.2660  -15.9560   22.0340 C.ar    1  LIG       -0.0373
     17 C17        -5.8680  -15.3100   23.2400 C.ar    1  LIG        0.0496
     18 N18        -4.6390  -14.9720   23.7570 N.ar    1  LIG       -0.3489
     19 C19        -3.3430  -15.2020   23.1370 C.3     1  LIG        0.0119
     20 C20        -4.7870  -14.3680   24.9200 C.ar    1  LIG        0.0175
     21 C21        -6.1450  -14.3060   25.1940 C.ar    1  LIG        0.0619
     22 C22        -6.8010  -13.6990   26.4180 C.2     1  LIG        0.2466
     23 O23        -7.8580  -13.1970   26.2910 O.2     1  LIG       -0.2701
     24 N24        -6.1550  -13.7400   27.7110 N.am    1  LIG       -0.3047
     25 C25        -6.8540  -13.1360   28.8170 C.3     1  LIG        0.0458
     26 C26        -6.5350  -11.6390   28.8020 C.ar    1  LIG       -0.0275
     27 C27        -5.2630  -11.1800   29.0990 C.ar    1  LIG       -0.0568
     28 C28        -4.9870   -9.8230   29.0850 C.ar    1  LIG       -0.0614
     29 C29        -5.9890   -8.9190   28.7720 C.ar    1  LIG       -0.0617
     30 C30        -7.2650   -9.3810   28.4720 C.ar    1  LIG       -0.0614
     31 C31        -7.5320  -10.7370   28.4870 C.ar    1  LIG       -0.0568
     32 C32        -6.4690  -13.8000   30.1380 C.3     1  LIG       -0.0424
     33 C33        -6.8450  -14.9180   24.1180 C.ar    1  LIG        0.0122
     34 C34        -8.2280  -15.1410   23.8560 C.ar    1  LIG       -0.0484
     35 N35       -12.5250  -16.8100   19.7100 N.2     1  LIG        0.0283
     36 C36       -13.5300  -15.6510   16.8240 C.3     1  LIG       -0.0530
     37 H         -13.9750  -18.5933   15.1795 H       1  LIG        0.0237
     38 H         -13.0164  -17.2080   14.7156 H       1  LIG        0.0237
     39 H         -14.7466  -17.0503   14.9018 H       1  LIG        0.0237
     40 H         -12.8269  -17.7054   17.1261 H       1  LIG        0.0404
     41 H         -15.7428  -17.7211   19.5274 H       1  LIG        0.2552
     42 H         -10.2868  -15.3006   20.5801 H       1  LIG        0.0394
     43 H          -9.8711  -17.0707   20.7134 H       1  LIG        0.0394
     44 H          -9.8841  -15.0294   22.1790 H       1  LIG        0.0356
     45 H         -10.9046  -15.4733   24.0475 H       1  LIG        0.0309
     46 H         -10.4429  -17.2359   23.8855 H       1  LIG        0.0309
     47 H         -12.3437  -17.6794   23.6342 H       1  LIG        0.0764
     48 H         -12.7625  -15.9091   23.5463 H       1  LIG        0.0764
     49 H          -7.8961  -16.6793   20.9170 H       1  LIG        0.0621
     50 H          -5.5548  -16.2545   21.3483 H       1  LIG        0.0638
     51 H          -3.4789  -15.7063   22.2031 H       1  LIG        0.0456
     52 H          -2.7403  -15.8050   23.7836 H       1  LIG        0.0456
     53 H          -2.8568  -14.2639   22.9684 H       1  LIG        0.0456
     54 H          -4.0283  -14.0063   25.5188 H       1  LIG        0.0817
     55 H          -5.2741  -14.1630   27.8308 H       1  LIG        0.1496
     56 H          -7.9105  -13.2748   28.7194 H       1  LIG        0.0545
     57 H          -4.5162  -11.8530   29.3322 H       1  LIG        0.0621
     58 H          -4.0372   -9.4860   29.3072 H       1  LIG        0.0618
     59 H          -5.7888   -7.9067   28.7616 H       1  LIG        0.0618
     60 H          -8.0140   -8.7108   28.2378 H       1  LIG        0.0618
     61 H          -8.4801  -11.0767   28.2619 H       1  LIG        0.0621
     62 H          -5.4159  -13.6954   30.2961 H       1  LIG        0.0251
     63 H          -6.7229  -14.8388   30.1023 H       1  LIG        0.0251
     64 H          -6.9985  -13.3308   30.9407 H       1  LIG        0.0251
     65 H          -8.9364  -14.8434   24.5449 H       1  LIG        0.0627
     66 H         -14.4141  -15.1895   16.4362 H       1  LIG        0.0237
     67 H         -12.6846  -15.3468   16.2429 H       1  LIG        0.0237
     68 H         -13.3891  -15.3527   17.8419 H       1  LIG        0.0237
@<TRIPOS>BOND
     1     1     2    1
     2     2     3    1
     3     2    36    1
     4     3     4    2
     5     3     5   am
     6     5     6    1
     7     6     7    2
     8     6    35    1
     9     7     8    1
    10     8     9    1
    11     8    13    1
    12     9    10    1
    13     9    35    2
    14    10    11    1
    15    11    12    1
    16    11    14    1
    17    12    13    1
    18    14    15   ar
    19    14    34   ar
    20    15    16   ar
    21    16    17   ar
    22    17    18   ar
    23    17    33   ar
    24    18    19    1
    25    18    20   ar
    26    20    21   ar
    27    21    22    1
    28    21    33   ar
    29    22    23    2
    30    22    24   am
    31    24    25    1
    32    25    26    1
    33    25    32    1
    34    26    27   ar
    35    26    31   ar
    36    27    28   ar
    37    28    29   ar
    38    29    30   ar
    39    30    31   ar
    40    33    34   ar
    41     1    37    1
    42     1    38    1
    43     1    39    1
    44     2    40    1
    45     5    41    1
    46    10    42    1
    47    10    43    1
    48    11    44    1
    49    12    45    1
    50    12    46    1
    51    13    47    1
    52    13    48    1
    53    15    49    1
    54    16    50    1
    55    19    51    1
    56    19    52    1
    57    19    53    1
    58    20    54    1
    59    24    55    1
    60    25    56    1
    61    27    57    1
    62    28    58    1
    63    29    59    1
    64    30    60    1
    65    31    61    1
    66    32    62    1
    67    32    63    1
    68    32    64    1
    69    34    65    1
    70    36    66    1
    71    36    67    1
    72    36    68    1
