@<TRIPOS>MOLECULE
LIG
 47 50 0 0 0
SMALL
USER_CHARGES

@<TRIPOS>ATOM
      1 C1         -6.4040  -19.4840   23.1860 C.3     1  LIG     0.0085
      2 N2         -6.1010  -18.0720   23.2670 N.am    1  LIG    -0.2697
      3 C3         -5.7740  -17.3890   22.0590 C.ar    1  LIG     0.0780
      4 C4         -6.6270  -17.4010   20.9660 C.ar    1  LIG    -0.0367
      5 C5         -6.3130  -16.7080   19.8080 C.ar    1  LIG    -0.0598
      6 C6         -5.1330  -15.9900   19.7350 C.ar    1  LIG    -0.0582
      7 C7         -4.2700  -15.9690   20.8150 C.ar    1  LIG    -0.0181
      8 C8         -4.5930  -16.6590   21.9700 C.ar    1  LIG     0.1419
      9 O9         -3.7000  -16.6460   23.0470 O.3     1  LIG    -0.4878
     10 C10        -4.1520  -15.7530   24.0680 C.3     1  LIG     0.1165
     11 C11        -5.5760  -16.0440   24.4890 C.3     1  LIG     0.1345
     12 N12        -5.8820  -15.4670   25.7770 N.am    1  LIG    -0.2946
     13 C13        -6.1870  -14.1250   25.8780 C.2     1  LIG     0.2815
     14 O14        -6.2960  -13.3660   24.9260 O.2     1  LIG    -0.2668
     15 C15        -6.3680  -13.6610   27.2100 C.ar    1  LIG     0.2118
     16 N16        -6.1640  -14.3560   28.3100 N.ar    1  LIG    -0.2548
     17 N17        -6.4480  -13.5510   29.3820 N.ar    1  LIG    -0.1567
     18 C18        -6.8170  -12.3800   28.9100 C.ar    1  LIG     0.1558
     19 C19        -7.2200  -11.1770   29.6540 C.3     1  LIG     0.0342
     20 C20        -6.3410  -10.0100   29.3880 C.ar    1  LIG    -0.0400
     21 C21        -5.0510   -9.9840   29.8940 C.ar    1  LIG    -0.0582
     22 C22        -4.2200   -8.9130   29.6370 C.ar    1  LIG    -0.0615
     23 C23        -4.6980   -7.8690   28.8700 C.ar    1  LIG    -0.0617
     24 C24        -5.9920   -7.8960   28.3760 C.ar    1  LIG    -0.0615
     25 C25        -6.8260   -8.9650   28.6320 C.ar    1  LIG    -0.0582
     26 N26        -6.7740  -12.4070   27.5480 N.ar    1  LIG    -0.2069
     27 C27        -5.8380  -17.5270   24.5190 C.2     1  LIG     0.2433
     28 O28        -5.8220  -18.1720   25.5590 O.2     1  LIG    -0.2731
     29 H          -6.5819  -19.7527   22.1657 H       1  LIG     0.0433
     30 H          -7.2767  -19.6955   23.7679 H       1  LIG     0.0433
     31 H          -5.5776  -20.0484   23.5646 H       1  LIG     0.0433
     32 H          -7.5092  -17.9342   21.0157 H       1  LIG     0.0637
     33 H          -6.9576  -16.7275   19.0023 H       1  LIG     0.0618
     34 H          -4.8970  -15.4704   18.8751 H       1  LIG     0.0619
     35 H          -3.3860  -15.4393   20.7597 H       1  LIG     0.0655
     36 H          -4.0997  -14.7505   23.6975 H       1  LIG     0.0720
     37 H          -3.5222  -15.8842   24.9230 H       1  LIG     0.0720
     38 H          -6.2152  -15.5919   23.7596 H       1  LIG     0.0629
     39 H          -5.8730  -16.0315   26.5836 H       1  LIG     0.1500
     40 H          -5.8602  -15.2914   28.3544 H       1  LIG     0.1907
     41 H          -7.1881  -11.3966   30.7007 H       1  LIG     0.0393
     42 H          -8.2061  -10.9158   29.3311 H       1  LIG     0.0393
     43 H          -4.7095  -10.7714   30.4671 H       1  LIG     0.0620
     44 H          -3.2585   -8.8925   30.0113 H       1  LIG     0.0618
     45 H          -4.0872   -7.0632   28.6634 H       1  LIG     0.0618
     46 H          -6.3369   -7.1058   27.8088 H       1  LIG     0.0618
     47 H          -7.7907   -8.9815   28.2658 H       1  LIG     0.0620
@<TRIPOS>BOND
     1     1     2    1
     2     2     3    1
     3     2    27   am
     4     3     4   ar
     5     3     8   ar
     6     4     5   ar
     7     5     6   ar
     8     6     7   ar
     9     7     8   ar
    10     8     9    1
    11     9    10    1
    12    10    11    1
    13    11    12    1
    14    11    27    1
    15    12    13   am
    16    13    14    2
    17    13    15    1
    18    15    16   ar
    19    15    26   ar
    20    16    17   ar
    21    17    18   ar
    22    18    19    1
    23    18    26   ar
    24    19    20    1
    25    20    21   ar
    26    20    25   ar
    27    21    22   ar
    28    22    23   ar
    29    23    24   ar
    30    24    25   ar
    31    27    28    2
    32     1    29    1
    33     1    30    1
    34     1    31    1
    35     4    32    1
    36     5    33    1
    37     6    34    1
    38     7    35    1
    39    10    36    1
    40    10    37    1
    41    11    38    1
    42    12    39    1
    43    16    40    1
    44    19    41    1
    45    19    42    1
    46    21    43    1
    47    22    44    1
    48    23    45    1
    49    24    46    1
    50    25    47    1
