@<TRIPOS>MOLECULE
LIG
 31 33 0 0 0
SMALL
USER_CHARGES

@<TRIPOS>ATOM
      1 CL1        -4.8490   -7.5600   28.2320 Cl      1  LIG    -0.0814
      2 C1         -7.7170  -10.5870   29.1410 C.ar    1  LIG    -0.0522
      3 N1         -4.1250  -10.3140   29.4170 N.ar    1  LIG    -0.3592
      4 O1         -4.4090  -14.8200   29.1210 O.2     1  LIG    -0.2731
      5 C2         -6.3740  -10.7670   29.3580 C.ar    1  LIG     0.0043
      6 N2         -7.6320  -13.4880   28.2250 N.am    1  LIG    -0.2873
      7 O2         -7.4590  -13.2980   25.8150 O.2     1  LIG    -0.2522
      8 C3         -5.4150   -9.8290   29.0850 C.ar    1  LIG     0.0653
      9 N3         -5.6910  -14.4910   27.0260 N.am    1  LIG    -0.2276
     10 C4         -5.8240   -8.6230   28.5580 C.ar    1  LIG     0.0648
     11 C5         -7.1760   -8.4100   28.3240 C.ar    1  LIG    -0.0414
     12 C6         -8.1080   -9.3860   28.6190 C.ar    1  LIG    -0.0597
     13 C7         -5.7070  -11.8590   29.8500 C.ar    1  LIG    -0.0201
     14 C8         -4.3470  -11.5640   29.8930 C.ar    1  LIG     0.0060
     15 C10        -6.3490  -13.1270   30.3220 C.3     1  LIG     0.0014
     16 C11        -6.6940  -14.0910   29.2320 C.3     1  LIG     0.1055
     17 C12        -5.4850  -14.4770   28.4900 C.2     1  LIG     0.2434
     18 C14        -6.9560  -13.7260   26.9300 C.2     1  LIG     0.3089
     19 C17        -4.5870  -13.9310   26.1710 C.3     1  LIG     0.0124
     20 H          -8.4020  -11.3264   29.3624 H       1  LIG     0.0624
     21 H          -3.2627   -9.8484   29.3231 H       1  LIG     0.1654
     22 H          -8.4934  -13.0401   28.3881 H       1  LIG     0.1510
     23 H          -7.4885   -7.5112   27.9246 H       1  LIG     0.0633
     24 H          -9.1090   -9.2065   28.4435 H       1  LIG     0.0618
     25 H          -3.6142  -12.2039   30.2372 H       1  LIG     0.0810
     26 H          -7.2497  -12.8726   30.8405 H       1  LIG     0.0337
     27 H          -5.6312  -13.6174   30.9458 H       1  LIG     0.0337
     28 H          -7.1536  -14.9307   29.7101 H       1  LIG     0.0598
     29 H          -3.7072  -14.5287   26.2880 H       1  LIG     0.0434
     30 H          -4.3778  -12.9257   26.4719 H       1  LIG     0.0434
     31 H          -4.8908  -13.9403   25.1451 H       1  LIG     0.0434
@<TRIPOS>BOND
     1     1    10    1
     2     2     5   ar
     3     2    12   ar
     4     3     8   ar
     5     3    14   ar
     6     4    17    2
     7     5     8   ar
     8     5    13   ar
     9     6    16    1
    10     6    18   am
    11     7    18    2
    12     8    10   ar
    13     9    17   am
    14     9    18   am
    15     9    19    1
    16    10    11   ar
    17    11    12   ar
    18    13    14   ar
    19    13    15    1
    20    15    16    1
    21    16    17    1
    22     2    20    1
    23     3    21    1
    24     6    22    1
    25    11    23    1
    26    12    24    1
    27    14    25    1
    28    15    26    1
    29    15    27    1
    30    16    28    1
    31    19    29    1
    32    19    30    1
    33    19    31    1
